
#======================================================================
# CRYSTAL DATA
#----------------------------------------------------------------------
data_VESTA_phase_1

_chemical_name_common                  'Na32 V16 P24 O96'
_cell_length_a                         17.871201
_cell_length_b                         12.453409
_cell_length_c                         17.348478
_cell_angle_alpha                      92.441925
_cell_angle_beta                       90.000008
_cell_angle_gamma                      89.999992
_cell_volume                           3857.525645
_space_group_name_H-M_alt              'B 1'
_space_group_IT_number                 1

loop_
_space_group_symop_operation_xyz
   'x, y, z'
   'x+1/2, y, z+1/2'

loop_
   _atom_site_label
   _atom_site_occupancy
   _atom_site_fract_x
   _atom_site_fract_y
   _atom_site_fract_z
   _atom_site_adp_type
   _atom_site_B_iso_or_equiv
   _atom_site_type_symbol
   Na1        1.0    -0.125000     0.249999     0.374999    Biso  1.000000 Na
   Na1        1.0     0.125000     0.749999     0.624999    Biso  1.000000 Na
   Na1        1.0    -0.125000     0.249999     0.874999    Biso  1.000000 Na
   Na1        1.0    -0.375000     0.749999     0.624999    Biso  1.000000 Na
   Na1        1.0    -0.125000     0.749999     0.874999    Biso  1.000000 Na
   Na1        1.0     0.125000     0.249999     0.624999    Biso  1.000000 Na
   Na1        1.0    -0.375000     0.249999     0.624999    Biso  1.000000 Na
   Na1        1.0    -0.125000     0.749999     0.374999    Biso  1.000000 Na
   Na2        1.0    -0.191703     0.499991     0.374996    Biso  1.000000 Na
   Na2        1.0     0.058297     0.999991     0.124997    Biso  1.000000 Na
   Na2        1.0     0.058297     0.999991     0.624996    Biso  1.000000 Na
   Na2        1.0     0.308297     0.499991     0.374997    Biso  1.000000 Na
   Na2        1.0    -0.033349     0.316700     0.216642    Biso  1.000000 Na
   Na2        1.0    -0.283349     0.816700     0.466642    Biso  1.000000 Na
   Na2        1.0     0.216651     0.816700     0.466642    Biso  1.000000 Na
   Na2        1.0    -0.033349     0.316700     0.716642    Biso  1.000000 Na
   Na2        1.0     0.033349     0.316700     0.466643    Biso  1.000000 Na
   Na2        1.0    -0.216651     0.816700     0.716643    Biso  1.000000 Na
   Na2        1.0     0.283349     0.816700     0.716643    Biso  1.000000 Na
   Na2        1.0     0.033349     0.316700     0.966643    Biso  1.000000 Na
   Na2        1.0     0.033354     0.683293     0.783346    Biso  1.000000 Na
   Na2        1.0     0.283354     0.183293     0.533345    Biso  1.000000 Na
   Na2        1.0    -0.216645     0.183293     0.533346    Biso  1.000000 Na
   Na2        1.0     0.033354     0.683293     0.283345    Biso  1.000000 Na
   Na2        1.0     0.191703     0.499991     0.624996    Biso  1.000000 Na
   Na2        1.0    -0.058297     0.999991     0.874996    Biso  1.000000 Na
   Na2        1.0    -0.058296     0.999991     0.374997    Biso  1.000000 Na
   Na2        1.0    -0.308296     0.499991     0.624996    Biso  1.000000 Na
   Na2        1.0    -0.033354     0.683294     0.533346    Biso  1.000000 Na
   Na2        1.0     0.216646     0.183294     0.283346    Biso  1.000000 Na
   Na2        1.0     0.216646     0.183294     0.783346    Biso  1.000000 Na
   Na2        1.0     0.466646     0.683294     0.533346    Biso  1.000000 Na
   V1         1.0    -0.125000     0.396138     0.521138    Biso  1.000000 V
   V2         1.0     0.125000     0.896138     0.271138    Biso  1.000000 V
   V3         1.0     0.125000     0.896138     0.771138    Biso  1.000000 V
   V4         1.0     0.375000     0.396138     0.521138    Biso  1.000000 V
   V5         1.0     0.125000     0.396138     0.271138    Biso  1.000000 V
   V6         1.0    -0.125000     0.896138     0.521138    Biso  1.000000 V
   V7         1.0     0.375000     0.896138     0.521138    Biso  1.000000 V
   V8         1.0     0.125000     0.396138     0.771138    Biso  1.000000 V
   V9         1.0     0.125000     0.603859     0.478859    Biso  1.000000 V
   V10        1.0    -0.125000     0.103859     0.728859    Biso  1.000000 V
   V11        1.0    -0.125000     0.103859     0.228859    Biso  1.000000 V
   V12        1.0    -0.375000     0.603859     0.478859    Biso  1.000000 V
   V13        1.0    -0.125000     0.603859     0.728859    Biso  1.000000 V
   V14        1.0     0.125000     0.103859     0.478859    Biso  1.000000 V
   V15        1.0    -0.375000     0.103859     0.478859    Biso  1.000000 V
   V16        1.0    -0.125000     0.603859     0.228859    Biso  1.000000 V
   P1         1.0    -0.050106     0.149786     0.550102    Biso  1.000000 P
   P2         1.0     0.199893     0.649786     0.300102    Biso  1.000000 P
   P3         1.0     0.199893     0.649786     0.800102    Biso  1.000000 P
   P4         1.0     0.449893     0.149786     0.550102    Biso  1.000000 P
   P5         1.0    -0.050105     0.850209     0.699891    Biso  1.000000 P
   P6         1.0     0.199895     0.350209     0.449891    Biso  1.000000 P
   P7         1.0    -0.300105     0.350209     0.449891    Biso  1.000000 P
   P8         1.0    -0.050105     0.850209     0.199891    Biso  1.000000 P
   P9         1.0    -0.024788     0.499996     0.374997    Biso  1.000000 P
   P10        1.0    -0.274788     0.999996     0.624997    Biso  1.000000 P
   P11        1.0     0.225211     0.999996     0.624997    Biso  1.000000 P
   P12        1.0    -0.024789     0.499996     0.874997    Biso  1.000000 P
   P13        1.0     0.024788     0.499996     0.624997    Biso  1.000000 P
   P14        1.0     0.274788     0.999996     0.374997    Biso  1.000000 P
   P15        1.0    -0.225212     0.999996     0.374997    Biso  1.000000 P
   P16        1.0     0.024788     0.499996     0.124997    Biso  1.000000 P
   P17        1.0     0.050105     0.850209     0.449891    Biso  1.000000 P
   P18        1.0    -0.199895     0.350209     0.699891    Biso  1.000000 P
   P19        1.0     0.300105     0.350209     0.699891    Biso  1.000000 P
   P20        1.0     0.050105     0.850209     0.949891    Biso  1.000000 P
   P21        1.0     0.050106     0.149786     0.300103    Biso  1.000000 P
   P22        1.0    -0.199894     0.649786     0.550102    Biso  1.000000 P
   P23        1.0     0.300106     0.649786     0.550102    Biso  1.000000 P
   P24        1.0     0.050106     0.149786     0.800102    Biso  1.000000 P
   O1         1.0    -0.172404     0.543714     0.513227    Biso  1.000000 O
   O2         1.0     0.077595     0.043714     0.263227    Biso  1.000000 O
   O3         1.0     0.077596     0.043714     0.763227    Biso  1.000000 O
   O4         1.0     0.327596     0.543714     0.513228    Biso  1.000000 O
   O5         1.0    -0.023555     0.435632     0.567269    Biso  1.000000 O
   O6         1.0     0.226445     0.935632     0.317269    Biso  1.000000 O
   O7         1.0    -0.273555     0.935631     0.317269    Biso  1.000000 O
   O8         1.0    -0.023555     0.435632     0.067269    Biso  1.000000 O
   O9         1.0     0.070958     0.840823     0.864673    Biso  1.000000 O
   O10        1.0     0.320959     0.340823     0.614673    Biso  1.000000 O
   O11        1.0    -0.179041     0.340823     0.614673    Biso  1.000000 O
   O12        1.0     0.070959     0.840823     0.364673    Biso  1.000000 O
   O13        1.0    -0.070959     0.840824     0.614673    Biso  1.000000 O
   O14        1.0     0.179041     0.340823     0.364672    Biso  1.000000 O
   O15        1.0    -0.320959     0.340824     0.364673    Biso  1.000000 O
   O16        1.0    -0.070959     0.840824     0.114672    Biso  1.000000 O
   O17        1.0     0.023555     0.435632     0.317268    Biso  1.000000 O
   O18        1.0    -0.226446     0.935632     0.567268    Biso  1.000000 O
   O19        1.0     0.273555     0.935632     0.567268    Biso  1.000000 O
   O20        1.0     0.023554     0.435632     0.817268    Biso  1.000000 O
   O21        1.0     0.172404     0.543715     0.763227    Biso  1.000000 O
   O22        1.0     0.422404     0.043715     0.513228    Biso  1.000000 O
   O23        1.0    -0.077596     0.043715     0.513228    Biso  1.000000 O
   O24        1.0     0.172404     0.543715     0.263227    Biso  1.000000 O
   O25        1.0     0.172403     0.456280     0.486762    Biso  1.000000 O
   O26        1.0    -0.077597     0.956281     0.736763    Biso  1.000000 O
   O27        1.0    -0.077596     0.956281     0.236762    Biso  1.000000 O
   O28        1.0    -0.327596     0.456280     0.486762    Biso  1.000000 O
   O29        1.0     0.023557     0.564358     0.432723    Biso  1.000000 O
   O30        1.0    -0.226443     0.064359     0.682724    Biso  1.000000 O
   O31        1.0     0.273558     0.064358     0.682724    Biso  1.000000 O
   O32        1.0     0.023557     0.564358     0.932723    Biso  1.000000 O
   O33        1.0    -0.070961     0.159166     0.135320    Biso  1.000000 O
   O34        1.0    -0.320962     0.659166     0.385320    Biso  1.000000 O
   O35        1.0     0.179038     0.659166     0.385320    Biso  1.000000 O
   O36        1.0    -0.070962     0.159166     0.635319    Biso  1.000000 O
   O37        1.0     0.070962     0.159167     0.385320    Biso  1.000000 O
   O38        1.0    -0.179038     0.659166     0.635320    Biso  1.000000 O
   O39        1.0     0.320962     0.659166     0.635320    Biso  1.000000 O
   O40        1.0     0.070962     0.159166     0.885320    Biso  1.000000 O
   O41        1.0    -0.023557     0.564358     0.682723    Biso  1.000000 O
   O42        1.0     0.226443     0.064358     0.432723    Biso  1.000000 O
   O43        1.0    -0.273557     0.064358     0.432723    Biso  1.000000 O
   O44        1.0    -0.023557     0.564358     0.182723    Biso  1.000000 O
   O45        1.0    -0.172404     0.456281     0.236762    Biso  1.000000 O
   O46        1.0    -0.422404     0.956281     0.486762    Biso  1.000000 O
   O47        1.0     0.077596     0.956281     0.486762    Biso  1.000000 O
   O48        1.0    -0.172404     0.456281     0.736762    Biso  1.000000 O
   O49        1.0     0.035663     0.838842     0.703290    Biso  1.000000 O
   O50        1.0     0.285663     0.338842     0.453290    Biso  1.000000 O
   O51        1.0    -0.214337     0.338842     0.453290    Biso  1.000000 O
   O52        1.0     0.035663     0.838842     0.203290    Biso  1.000000 O
   O53        1.0    -0.075055     0.417627     0.413898    Biso  1.000000 O
   O54        1.0    -0.325055     0.917627     0.663898    Biso  1.000000 O
   O55        1.0     0.174945     0.917627     0.663898    Biso  1.000000 O
   O56        1.0    -0.075056     0.417627     0.913898    Biso  1.000000 O
   O57        1.0    -0.085607     0.238953     0.503235    Biso  1.000000 O
   O58        1.0     0.164393     0.738953     0.253235    Biso  1.000000 O
   O59        1.0     0.164393     0.738953     0.753235    Biso  1.000000 O
   O60        1.0     0.414393     0.238953     0.503235    Biso  1.000000 O
   O61        1.0     0.085608     0.238953     0.253235    Biso  1.000000 O
   O62        1.0    -0.164392     0.738953     0.503235    Biso  1.000000 O
   O63        1.0     0.335607     0.738953     0.503235    Biso  1.000000 O
   O64        1.0     0.085608     0.238953     0.753235    Biso  1.000000 O
   O65        1.0     0.075056     0.417627     0.663897    Biso  1.000000 O
   O66        1.0     0.325056     0.917627     0.413897    Biso  1.000000 O
   O67        1.0    -0.174944     0.917627     0.413897    Biso  1.000000 O
   O68        1.0     0.075055     0.417627     0.163897    Biso  1.000000 O
   O69        1.0    -0.035663     0.838842     0.453290    Biso  1.000000 O
   O70        1.0    -0.285663     0.338842     0.703290    Biso  1.000000 O
   O71        1.0     0.214337     0.338842     0.703290    Biso  1.000000 O
   O72        1.0    -0.035663     0.838842     0.953290    Biso  1.000000 O
   O73        1.0    -0.035662     0.161153     0.296704    Biso  1.000000 O
   O74        1.0    -0.285662     0.661153     0.546704    Biso  1.000000 O
   O75        1.0     0.214338     0.661153     0.546704    Biso  1.000000 O
   O76        1.0    -0.035662     0.161153     0.796704    Biso  1.000000 O
   O77        1.0     0.075056     0.582365     0.586097    Biso  1.000000 O
   O78        1.0     0.325055     0.082365     0.336098    Biso  1.000000 O
   O79        1.0    -0.174945     0.082365     0.336098    Biso  1.000000 O
   O80        1.0     0.075055     0.582365     0.086098    Biso  1.000000 O
   O81        1.0     0.085606     0.761043     0.496760    Biso  1.000000 O
   O82        1.0    -0.164394     0.261043     0.746760    Biso  1.000000 O
   O83        1.0    -0.164394     0.261043     0.246760    Biso  1.000000 O
   O84        1.0    -0.414394     0.761043     0.496760    Biso  1.000000 O
   O85        1.0    -0.085606     0.761043     0.746759    Biso  1.000000 O
   O86        1.0     0.164394     0.261043     0.496760    Biso  1.000000 O
   O87        1.0    -0.335606     0.261042     0.496759    Biso  1.000000 O
   O88        1.0    -0.085606     0.761042     0.246759    Biso  1.000000 O
   O89        1.0    -0.075055     0.582366     0.336097    Biso  1.000000 O
   O90        1.0    -0.325056     0.082366     0.586097    Biso  1.000000 O
   O91        1.0     0.174945     0.082366     0.586097    Biso  1.000000 O
   O92        1.0    -0.075056     0.582366     0.836097    Biso  1.000000 O
   O93        1.0     0.035661     0.161153     0.546705    Biso  1.000000 O
   O94        1.0     0.285662     0.661153     0.296704    Biso  1.000000 O
   O95        1.0    -0.214338     0.661153     0.296704    Biso  1.000000 O
   O96        1.0     0.035661     0.161154     0.046704    Biso  1.000000 O
