
#======================================================================
# CRYSTAL DATA
#----------------------------------------------------------------------
data_VESTA_phase_1

_chemical_name_common                  'Na32 V16 P24 O96'
_cell_length_a                         12.453408
_cell_length_b                         12.453409
_cell_length_c                         12.453409
_cell_angle_alpha                      91.700623
_cell_angle_beta                       91.700615
_cell_angle_gamma                      91.700615
_cell_volume                           1928.762971
_space_group_name_H-M_alt              'P 1'
_space_group_IT_number                 1

loop_
_space_group_symop_operation_xyz
   'x, y, z'

loop_
   _atom_site_label
   _atom_site_occupancy
   _atom_site_fract_x
   _atom_site_fract_y
   _atom_site_fract_z
   _atom_site_adp_type
   _atom_site_B_iso_or_equiv
   _atom_site_type_symbol
   Na1        1.0     0.249999     0.249999     0.499999    Biso  1.000000 Na
   Na1        1.0     0.749999     0.749999     0.499999    Biso  1.000000 Na
   Na1        1.0     0.749999     0.249999     0.999999    Biso  1.000000 Na
   Na1        1.0     0.249999     0.749999     0.999999    Biso  1.000000 Na
   Na1        1.0     0.749999     0.749999     0.999999    Biso  1.000000 Na
   Na1        1.0     0.749999     0.249999     0.499999    Biso  1.000000 Na
   Na1        1.0     0.249999     0.249999     0.999999    Biso  1.000000 Na
   Na1        1.0     0.249999     0.749999     0.499999    Biso  1.000000 Na
   Na2        1.0     0.183293     0.499991     0.566700    Biso  1.000000 Na
   Na2       1.0     0.183293     0.999991     0.066700    Biso  1.000000 Na
   Na2       1.0     0.683293     0.999991     0.566700    Biso  1.000000 Na
   Na2       1.0     0.683293     0.499991     0.066700    Biso  1.000000 Na
   Na2       1.0     0.183293     0.316700     0.249991    Biso  1.000000 Na
   Na2       1.0     0.183293     0.816700     0.749991    Biso  1.000000 Na
   Na2       1.0     0.683293     0.816700     0.249991    Biso  1.000000 Na
   Na2       1.0     0.683293     0.316700     0.749991    Biso  1.000000 Na
   Na2       1.0     0.499992     0.316700     0.433294    Biso  1.000000 Na
   Na2       1.0     0.499992     0.816700     0.933294    Biso  1.000000 Na
   Na2       1.0     0.999992     0.816700     0.433294    Biso  1.000000 Na
   Na2       1.0     0.999992     0.316700     0.933294    Biso  1.000000 Na
   Na2       1.0     0.816700     0.683293     0.749992    Biso  1.000000 Na
   Na2       1.0     0.816700     0.183293     0.249991    Biso  1.000000 Na
   Na2       1.0     0.316700     0.183293     0.749991    Biso  1.000000 Na
   Na2       1.0     0.316700     0.683293     0.249991    Biso  1.000000 Na
   Na2       1.0     0.816700     0.499991     0.433293    Biso  1.000000 Na
   Na2       1.0     0.816700     0.999991     0.933293    Biso  1.000000 Na
   Na2       1.0     0.316700     0.999991     0.433293    Biso  1.000000 Na
   Na2       1.0     0.316700     0.499991     0.933293    Biso  1.000000 Na
   Na2       1.0     0.499992     0.683294     0.566700    Biso  1.000000 Na
   Na2       1.0     0.499992     0.183294     0.066700    Biso  1.000000 Na
   Na2       1.0     0.999992     0.183294     0.566700    Biso  1.000000 Na
   Na2       1.0     0.999992     0.683294     0.066700    Biso  1.000000 Na
   V1         1.0     0.396138     0.396138     0.646138    Biso  1.000000 V
   V2         1.0     0.396138     0.896138     0.146138    Biso  1.000000 V
   V3         1.0     0.896138     0.896138     0.646138    Biso  1.000000 V
   V4         1.0     0.896138     0.396138     0.146138    Biso  1.000000 V
   V5         1.0     0.396138     0.396138     0.146138    Biso  1.000000 V
   V6         1.0     0.396138     0.896138     0.646138    Biso  1.000000 V
   V7         1.0     0.896138     0.896138     0.146138    Biso  1.000000 V
   V8         1.0     0.896138     0.396138     0.646138    Biso  1.000000 V
   V9         1.0     0.603859     0.603859     0.353859    Biso  1.000000 V
   V10        1.0     0.603859     0.103859     0.853859    Biso  1.000000 V
   V11        1.0     0.103859     0.103859     0.353859    Biso  1.000000 V
   V12        1.0     0.103859     0.603859     0.853859    Biso  1.000000 V
   V13        1.0     0.603859     0.603859     0.853859    Biso  1.000000 V
   V14        1.0     0.603859     0.103859     0.353859    Biso  1.000000 V
   V15        1.0     0.103859     0.103859     0.853859    Biso  1.000000 V
   V16        1.0     0.103859     0.603859     0.353859    Biso  1.000000 V
   P1         1.0     0.499996     0.149786     0.600209    Biso  1.000000 P
   P2         1.0     0.499996     0.649786     0.100209    Biso  1.000000 P
   P3         1.0     0.999996     0.649786     0.600209    Biso  1.000000 P
   P4         1.0     0.999996     0.149786     0.100209    Biso  1.000000 P
   P5         1.0     0.649786     0.850209     0.749996    Biso  1.000000 P
   P6         1.0     0.649786     0.350209     0.249996    Biso  1.000000 P
   P7         1.0     0.149786     0.350209     0.749996    Biso  1.000000 P
   P8         1.0     0.149786     0.850209     0.249996    Biso  1.000000 P
   P9         1.0     0.350209     0.499996     0.399786    Biso  1.000000 P
   P10        1.0     0.350209     0.999996     0.899786    Biso  1.000000 P
   P11        1.0     0.850209     0.999996     0.399786    Biso  1.000000 P
   P12        1.0     0.850209     0.499996     0.899786    Biso  1.000000 P
   P13        1.0     0.649786     0.499996     0.600209    Biso  1.000000 P
   P14        1.0     0.649786     0.999996     0.100209    Biso  1.000000 P
   P15        1.0     0.149786     0.999996     0.600209    Biso  1.000000 P
   P16        1.0     0.149786     0.499996     0.100209    Biso  1.000000 P
   P17        1.0     0.499996     0.850209     0.399786    Biso  1.000000 P
   P18        1.0     0.499996     0.350209     0.899786    Biso  1.000000 P
   P19        1.0     0.999996     0.350209     0.399786    Biso  1.000000 P
   P20        1.0     0.999996     0.850209     0.899786    Biso  1.000000 P
   P21        1.0     0.350209     0.149786     0.249996    Biso  1.000000 P
   P22        1.0     0.350209     0.649786     0.749996    Biso  1.000000 P
   P23        1.0     0.850209     0.649786     0.249996    Biso  1.000000 P
   P24        1.0     0.850209     0.149786     0.749996    Biso  1.000000 P
   O1         1.0     0.340823     0.543714     0.685632    Biso  1.000000 O
   O2         1.0     0.340823     0.043714     0.185632    Biso  1.000000 O
   O3         1.0     0.840823     0.043714     0.685632    Biso  1.000000 O
   O4         1.0     0.840823     0.543714     0.185632    Biso  1.000000 O
   O5         1.0     0.543714     0.435632     0.590824    Biso  1.000000 O
   O6         1.0     0.543714     0.935632     0.090824    Biso  1.000000 O
   O7         1.0     0.043714     0.935631     0.590824    Biso  1.000000 O
   O8         1.0     0.043714     0.435632     0.090824    Biso  1.000000 O
   O9         1.0     0.935632     0.840823     0.793715    Biso  1.000000 O
   O10        1.0     0.935632     0.340823     0.293714    Biso  1.000000 O
   O11        1.0     0.435632     0.340823     0.793714    Biso  1.000000 O
   O12        1.0     0.435632     0.840823     0.293714    Biso  1.000000 O
   O13        1.0     0.543714     0.840824     0.685632    Biso  1.000000 O
   O14        1.0     0.543714     0.340823     0.185631    Biso  1.000000 O
   O15        1.0     0.043714     0.340824     0.685632    Biso  1.000000 O
   O16        1.0     0.043714     0.840824     0.185631    Biso  1.000000 O
   O17        1.0     0.340823     0.435632     0.293714    Biso  1.000000 O
   O18        1.0     0.340823     0.935632     0.793714    Biso  1.000000 O
   O19        1.0     0.840823     0.935632     0.293714    Biso  1.000000 O
   O20        1.0     0.840823     0.435632     0.793714    Biso  1.000000 O
   O21        1.0     0.935632     0.543715     0.590823    Biso  1.000000 O
   O22        1.0     0.935632     0.043715     0.090823    Biso  1.000000 O
   O23        1.0     0.435632     0.043715     0.590824    Biso  1.000000 O
   O24        1.0     0.435632     0.543715     0.090823    Biso  1.000000 O
   O25        1.0     0.659166     0.456280     0.314359    Biso  1.000000 O
   O26        1.0     0.659166     0.956281     0.814359    Biso  1.000000 O
   O27        1.0     0.159166     0.956281     0.314358    Biso  1.000000 O
   O28        1.0     0.159166     0.456280     0.814358    Biso  1.000000 O
   O29        1.0     0.456281     0.564358     0.409166    Biso  1.000000 O
   O30        1.0     0.456281     0.064359     0.909167    Biso  1.000000 O
   O31        1.0     0.956281     0.064358     0.409166    Biso  1.000000 O
   O32        1.0     0.956281     0.564358     0.909166    Biso  1.000000 O
   O33        1.0     0.064358     0.159166     0.206281    Biso  1.000000 O
   O34        1.0     0.064358     0.659166     0.706281    Biso  1.000000 O
   O35        1.0     0.564358     0.659166     0.206281    Biso  1.000000 O
   O36        1.0     0.564358     0.159166     0.706281    Biso  1.000000 O
   O37        1.0     0.456281     0.159167     0.314358    Biso  1.000000 O
   O38        1.0     0.456281     0.659166     0.814358    Biso  1.000000 O
   O39        1.0     0.956281     0.659166     0.314358    Biso  1.000000 O
   O40        1.0     0.956281     0.159166     0.814358    Biso  1.000000 O
   O41        1.0     0.659166     0.564358     0.706280    Biso  1.000000 O
   O42        1.0     0.659166     0.064358     0.206280    Biso  1.000000 O
   O43        1.0     0.159166     0.064358     0.706280    Biso  1.000000 O
   O44        1.0     0.159166     0.564358     0.206280    Biso  1.000000 O
   O45        1.0     0.064358     0.456281     0.409166    Biso  1.000000 O
   O46        1.0     0.064358     0.956281     0.909166    Biso  1.000000 O
   O47        1.0     0.564358     0.956281     0.409166    Biso  1.000000 O
   O48        1.0     0.564358     0.456281     0.909166    Biso  1.000000 O
   O49        1.0     0.738953     0.838842     0.667627    Biso  1.000000 O
   O50        1.0     0.738953     0.338842     0.167627    Biso  1.000000 O
   O51        1.0     0.238953     0.338842     0.667627    Biso  1.000000 O
   O52        1.0     0.238953     0.838842     0.167627    Biso  1.000000 O
   O53        1.0     0.338842     0.417627     0.488953    Biso  1.000000 O
   O54        1.0     0.338842     0.917627     0.988953    Biso  1.000000 O
   O55        1.0     0.838842     0.917627     0.488953    Biso  1.000000 O
   O56        1.0     0.838842     0.417627     0.988953    Biso  1.000000 O
   O57        1.0     0.417627     0.238953     0.588842    Biso  1.000000 O
   O58        1.0     0.417627     0.738953     0.088842    Biso  1.000000 O
   O59        1.0     0.917627     0.738953     0.588842    Biso  1.000000 O
   O60        1.0     0.917627     0.238953     0.088842    Biso  1.000000 O
   O61        1.0     0.338842     0.238953     0.167627    Biso  1.000000 O
   O62        1.0     0.338842     0.738953     0.667627    Biso  1.000000 O
   O63        1.0     0.838842     0.738953     0.167627    Biso  1.000000 O
   O64        1.0     0.838842     0.238953     0.667627    Biso  1.000000 O
   O65        1.0     0.738953     0.417627     0.588842    Biso  1.000000 O
   O66        1.0     0.738953     0.917627     0.088842    Biso  1.000000 O
   O67        1.0     0.238953     0.917627     0.588842    Biso  1.000000 O
   O68        1.0     0.238953     0.417627     0.088842    Biso  1.000000 O
   O69        1.0     0.417627     0.838842     0.488953    Biso  1.000000 O
   O70        1.0     0.417627     0.338842     0.988953    Biso  1.000000 O
   O71        1.0     0.917627     0.338842     0.488953    Biso  1.000000 O
   O72        1.0     0.917627     0.838842     0.988953    Biso  1.000000 O
   O73        1.0     0.261042     0.161153     0.332366    Biso  1.000000 O
   O74        1.0     0.261042     0.661153     0.832366    Biso  1.000000 O
   O75        1.0     0.761042     0.661153     0.332366    Biso  1.000000 O
   O76        1.0     0.761042     0.161153     0.832366    Biso  1.000000 O
   O77        1.0     0.661153     0.582365     0.511042    Biso  1.000000 O
   O78        1.0     0.661153     0.082365     0.011043    Biso  1.000000 O
   O79        1.0     0.161153     0.082365     0.511042    Biso  1.000000 O
   O80        1.0     0.161153     0.582365     0.011043    Biso  1.000000 O
   O81        1.0     0.582366     0.761043     0.411154    Biso  1.000000 O
   O82        1.0     0.582366     0.261043     0.911154    Biso  1.000000 O
   O83        1.0     0.082366     0.261043     0.411154    Biso  1.000000 O
   O84        1.0     0.082366     0.761043     0.911153    Biso  1.000000 O
   O85        1.0     0.661153     0.761043     0.832365    Biso  1.000000 O
   O86        1.0     0.661153     0.261043     0.332366    Biso  1.000000 O
   O87        1.0     0.161153     0.261042     0.832365    Biso  1.000000 O
   O88        1.0     0.161153     0.761042     0.332365    Biso  1.000000 O
   O89        1.0     0.261042     0.582366     0.411153    Biso  1.000000 O
   O90        1.0     0.261042     0.082366     0.911153    Biso  1.000000 O
   O91        1.0     0.761042     0.082366     0.411153    Biso  1.000000 O
   O92        1.0     0.761042     0.582366     0.911153    Biso  1.000000 O
   O93        1.0     0.582366     0.161153     0.511043    Biso  1.000000 O
   O94        1.0     0.582366     0.661153     0.011042    Biso  1.000000 O
   O95        1.0     0.082366     0.661153     0.511042    Biso  1.000000 O
   O96        1.0     0.082366     0.161154     0.011043    Biso  1.000000 O
